* Horowitz & Hill : 
* Ideal Diode Model
.model ideal D(
+ Ron=1 
+ Roff=1Meg 
+ Vfwd=0 
+ Vrev=75
+ )